powerfulcases/cases/matpower/case59/case59.raw
0, 100, 33, 0, 0, 60  / 28-Jan-2026 21:52:49 - MATPOWER 8.1


     1, 'BUS 1       ',        15, 3,    1,    1, 1,           1,           0, 1.06, 0.94, 1.06, 0.94
     2, 'BUS 2       ',       330, 1,    1,    1, 1,     1.03895,     -1.4021, 1.06, 0.94, 1.06, 0.94
     3, 'BUS 3       ',        20, 2,    1,    1, 1,           1,     48.9004, 1.06, 0.94, 1.06, 0.94
     4, 'BUS 4       ',        20, 2,    1,    1, 1,           1,     37.8999, 1.06, 0.94, 1.06, 0.94
     5, 'BUS 5       ',        20, 2,    1,    1, 1,           1,      32.241, 1.06, 0.94, 1.06, 0.94
     6, 'BUS 6       ',        20, 2,    1,    1, 1,           1,      39.211, 1.06, 0.94, 1.06, 0.94
     7, 'BUS 7       ',       330, 2,    1,    1, 1,       1.055,     44.0174, 1.06, 0.94, 1.06, 0.94
     8, 'BUS 8       ',       330, 1,    1,    1, 1,      1.0472,     41.4466, 1.06, 0.94, 1.06, 0.94
     9, 'BUS 9       ',       330, 1,    1,    1, 1,      1.0221,     27.6908, 1.06, 0.94, 1.06, 0.94
    10, 'BUS 10      ',       330, 1,    1,    1, 1,     1.03244,     26.2505, 1.06, 0.94, 1.06, 0.94
    11, 'BUS 11      ',       330, 1,    1,    1, 1,     1.03793,     30.4145, 1.06, 0.94, 1.06, 0.94
    12, 'BUS 12      ',       500, 1,    1,    1, 1,     1.05939,     26.6789, 1.06, 0.94, 1.06, 0.94
    13, 'BUS 13      ',       330, 1,    1,    1, 1,     1.00806,     18.8693, 1.06, 0.94, 1.06, 0.94
    14, 'BUS 14      ',       330, 1,    1,    1, 1,     1.00839,     19.1254, 1.06, 0.94, 1.06, 0.94
    15, 'BUS 15      ',       500, 1,    1,    1, 1,     1.04263,     22.6683, 1.06, 0.94, 1.06, 0.94
    16, 'BUS 16      ',       330, 1,    1,    1, 1,     1.02565,     18.7505, 1.06, 0.94, 1.06, 0.94
    17, 'BUS 17      ',       330, 1,    1,    1, 1,     1.04329,      33.114, 1.06, 0.94, 1.06, 0.94
    18, 'BUS 18      ',       330, 1,    1,    1, 1,     1.01299,     16.0964, 1.06, 0.94, 1.06, 0.94
    19, 'BUS 19      ',       330, 1,    1,    1, 1,     1.00207,      9.3905, 1.06, 0.94, 1.06, 0.94
    20, 'BUS 20      ',        20, 2,    1,    1, 1,           1,     -3.3932, 1.06, 0.94, 1.06, 0.94
    21, 'BUS 21      ',        20, 2,    1,    1, 1,           1,    -18.0204, 1.06, 0.94, 1.06, 0.94
    22, 'BUS 22      ',       500, 1,    1,    1, 1,      1.0417,    -10.8515, 1.06, 0.94, 1.06, 0.94
    23, 'BUS 23      ',       500, 1,    1,    1, 1,     1.00933,    -21.7495, 1.06, 0.94, 1.06, 0.94
    24, 'BUS 24      ',       500, 1,    1,    1, 1,      1.0164,    -22.7619, 1.06, 0.94, 1.06, 0.94
    25, 'BUS 25      ',       500, 1,    1,    1, 1,     1.01598,    -24.9219, 1.06, 0.94, 1.06, 0.94
    26, 'BUS 26      ',       500, 1,    1,    1, 1,     1.01823,    -24.9732, 1.06, 0.94, 1.06, 0.94
    27, 'BUS 27      ',       500, 1,    1,    1, 1,     1.03586,    -35.4136, 1.06, 0.94, 1.06, 0.94
    28, 'BUS 28      ',       330, 1,    1,    1, 1,     1.02913,     -9.3431, 1.06, 0.94, 1.06, 0.94
    29, 'BUS 29      ',       330, 1,    1,    1, 1,     1.01981,    -24.8071, 1.06, 0.94, 1.06, 0.94
    30, 'BUS 30      ',       330, 1,    1,    1, 1,     1.01358,    -17.6649, 1.06, 0.94, 1.06, 0.94
    31, 'BUS 31      ',       220, 1,    1,    1, 1,      1.0383,    -23.5946, 1.06, 0.94, 1.06, 0.94
    32, 'BUS 32      ',       220, 2,    1,    1, 1,       1.015,    -30.2295, 1.06, 0.94, 1.06, 0.94
    33, 'BUS 33      ',       220, 1,    1,    1, 1,     1.01578,    -28.5167, 1.06, 0.94, 1.06, 0.94
    34, 'BUS 34      ',       275, 1,    1,    1, 1,     1.03763,    -39.0132, 1.06, 0.94, 1.06, 0.94
    35, 'BUS 35      ',        20, 2,    1,    1, 1,           1,     74.3354, 1.06, 0.94, 1.06, 0.94
    36, 'BUS 36      ',        20, 2,    1,    1, 1,           1,    107.9391, 1.06, 0.94, 1.06, 0.94
    37, 'BUS 37      ',        20, 2,    1,    1, 1,           1,    113.3369, 1.06, 0.94, 1.06, 0.94
    38, 'BUS 38      ',        20, 2,    1,    1, 1,           1,     106.526, 1.06, 0.94, 1.06, 0.94
    39, 'BUS 39      ',       275, 1,    1,    1, 1,     1.03118,     99.5376, 1.06, 0.94, 1.06, 0.94
    40, 'BUS 40      ',       275, 1,    1,    1, 1,     1.03417,    104.7857, 1.06, 0.94, 1.06, 0.94
    41, 'BUS 41      ',       275, 1,    1,    1, 1,     1.03927,    107.1131, 1.06, 0.94, 1.06, 0.94
    42, 'BUS 42      ',       275, 1,    1,    1, 1,     1.03014,    100.3798, 1.06, 0.94, 1.06, 0.94
    43, 'BUS 43      ',       275, 1,    1,    1, 1,     0.98553,      76.613, 1.06, 0.94, 1.06, 0.94
    44, 'BUS 44      ',       275, 1,    1,    1, 1,     1.03012,     68.1448, 1.06, 0.94, 1.06, 0.94
    45, 'BUS 45      ',       275, 1,    1,    1, 1,     0.99305,     62.2465, 1.06, 0.94, 1.06, 0.94
    46, 'BUS 46      ',       275, 2,    1,    1, 1,           1,     60.9735, 1.06, 0.94, 1.06, 0.94
    47, 'BUS 47      ',       275, 1,    1,    1, 1,     1.03981,     60.9511, 1.06, 0.94, 1.06, 0.94
    48, 'BUS 48      ',       330, 1,    1,    1, 1,     1.04183,     60.1987, 1.06, 0.94, 1.06, 0.94
    49, 'BUS 49      ',       330, 1,    1,    1, 1,     1.04738,      56.657, 1.06, 0.94, 1.06, 0.94
    50, 'BUS 50      ',       330, 1,    1,    1, 1,     1.05524,     50.2682, 1.06, 0.94, 1.06, 0.94
    51, 'BUS 51      ',        20, 2,    1,    1, 1,           1,     -55.315, 1.06, 0.94, 1.06, 0.94
    52, 'BUS 52      ',        15, 2,    1,    1, 1,           1,    -53.9517, 1.06, 0.94, 1.06, 0.94
    53, 'BUS 53      ',        15, 2,    1,    1, 1,           1,     -56.283, 1.06, 0.94, 1.06, 0.94
    54, 'BUS 54      ',       275, 1,    1,    1, 1,     1.04785,    -63.3086, 1.06, 0.94, 1.06, 0.94
    55, 'BUS 55      ',       275, 1,    1,    1, 1,     1.02206,    -60.8729, 1.06, 0.94, 1.06, 0.94
    56, 'BUS 56      ',       275, 1,    1,    1, 1,     1.02043,    -62.1823, 1.06, 0.94, 1.06, 0.94
    57, 'BUS 57      ',       275, 2,    1,    1, 1,       1.015,    -63.4538, 1.06, 0.94, 1.06, 0.94
    58, 'BUS 58      ',       275, 1,    1,    1, 1,     1.01043,    -64.6602, 1.06, 0.94, 1.06, 0.94
    59, 'BUS 59      ',       275, 2,    1,    1, 1,        1.03,    -45.7446, 1.06, 0.94, 1.06, 0.94
0 / END OF BUS DATA, BEGIN LOAD DATA
     2,  1, 1,    1,    1,       450,        45, 0, 0, 0, 0, 1, 1, 0
     7,  1, 1,    1,    1,       390,        39, 0, 0, 0, 0, 1, 1, 0
     8,  1, 1,    1,    1,       130,        13, 0, 0, 0, 0, 1, 1, 0
     9,  1, 1,    1,    1,      1880,       188, 0, 0, 0, 0, 1, 1, 0
    10,  1, 1,    1,    1,       210,        21, 0, 0, 0, 0, 1, 1, 0
    13,  1, 1,    1,    1,      1700,       170, 0, 0, 0, 0, 1, 1, 0
    14,  1, 1,    1,    1,      1660,       166, 0, 0, 0, 0, 1, 1, 0
    17,  1, 1,    1,    1,       480,        48, 0, 0, 0, 0, 1, 1, 0
    18,  1, 1,    1,    1,      1840,       184, 0, 0, 0, 0, 1, 1, 0
    19,  1, 1,    1,    1,      1260,       126, 0, 0, 0, 0, 1, 1, 0
    25,  1, 1,    1,    1,      1230,       123, 0, 0, 0, 0, 1, 1, 0
    26,  1, 1,    1,    1,       650,        65, 0, 0, 0, 0, 1, 1, 0
    27,  1, 1,    1,    1,       655,        66, 0, 0, 0, 0, 1, 1, 0
    28,  1, 1,    1,    1,       195,        20, 0, 0, 0, 0, 1, 1, 0
    31,  1, 1,    1,    1,       115,        12, 0, 0, 0, 0, 1, 1, 0
    32,  1, 1,    1,    1,      2405,       240, 0, 0, 0, 0, 1, 1, 0
    33,  1, 1,    1,    1,       250,        25, 0, 0, 0, 0, 1, 1, 0
    39,  1, 1,    1,    1,       990,        99, 0, 0, 0, 0, 1, 1, 0
    40,  1, 1,    1,    1,       740,        74, 0, 0, 0, 0, 1, 1, 0
    42,  1, 1,    1,    1,       150,        15, 0, 0, 0, 0, 1, 1, 0
    43,  1, 1,    1,    1,       260,        26, 0, 0, 0, 0, 1, 1, 0
    44,  1, 1,    1,    1,       530,        53, 0, 0, 0, 0, 1, 1, 0
    45,  1, 1,    1,    1,       575,        58, 0, 0, 0, 0, 1, 1, 0
    46,  1, 1,    1,    1,      1255,       126, 0, 0, 0, 0, 1, 1, 0
    54,  1, 1,    1,    1,       300,        60, 0, 0, 0, 0, 1, 1, 0
    57,  1, 1,    1,    1,      1000,       200, 0, 0, 0, 0, 1, 1, 0
    58,  1, 1,    1,    1,       800,       160, 0, 0, 0, 0, 1, 1, 0
    59,  1, 1,    1,    1,       200,        40, 0, 0, 0, 0, 1, 1, 0
0 / END OF LOAD DATA, BEGIN FIXED SHUNT DATA
0 / END OF FIXED SHUNT DATA, BEGIN GENERATOR DATA
     1,  1,   300.808,   311.463,       Inf,      -Inf,        1, 0,     100, 0, 1, 0, 0, 1, 1, 100,       Inf,         0, 1, 1, 0, 1, 0, 1, 0, 1, 0, 1
     3,  1,      3600,    573.64,       Inf,      -Inf,        1, 0,     100, 0, 1, 0, 0, 1, 1, 100,       Inf,         0, 1, 1, 0, 1, 0, 1, 0, 1, 0, 1
     4,  1,      2500,   663.381,       Inf,      -Inf,        1, 0,     100, 0, 1, 0, 0, 1, 1, 100,       Inf,         0, 1, 1, 0, 1, 0, 1, 0, 1, 0, 1
     5,  1,      1500,   531.183,       Inf,      -Inf,        1, 0,     100, 0, 1, 0, 0, 1, 1, 100,       Inf,         0, 1, 1, 0, 1, 0, 1, 0, 1, 0, 1
     6,  1,    2950.2,   734.155,       Inf,      -Inf,        1, 0,     100, 0, 1, 0, 0, 1, 1, 100,       Inf,         0, 1, 1, 0, 1, 0, 1, 0, 1, 0, 1
     7,  1,         0,   -68.262,       Inf,      -Inf,    1.055, 0,     100, 0, 1, 0, 0, 1, 1, 100,       Inf,         0, 1, 1, 0, 1, 0, 1, 0, 1, 0, 1
    20,  1,      4200,   996.438,       Inf,      -Inf,        1, 0,     100, 0, 1, 0, 0, 1, 1, 100,       Inf,         0, 1, 1, 0, 1, 0, 1, 0, 1, 0, 1
    21,  1,     939.9,   154.576,       Inf,      -Inf,        1, 0,     100, 0, 1, 0, 0, 1, 1, 100,       Inf,         0, 1, 1, 0, 1, 0, 1, 0, 1, 0, 1
    32,  1,         0,     7.399,       Inf,      -Inf,    1.015, 0,     100, 0, 1, 0, 0, 1, 1, 100,       Inf,         0, 1, 1, 0, 1, 0, 1, 0, 1, 0, 1
    35,  1,      1400,    514.88,       Inf,      -Inf,        1, 0,     100, 0, 1, 0, 0, 1, 1, 100,       Inf,         0, 1, 1, 0, 1, 0, 1, 0, 1, 0, 1
    36,  1,       837,   177.852,       Inf,      -Inf,        1, 0,     100, 0, 1, 0, 0, 1, 1, 100,       Inf,         0, 1, 1, 0, 1, 0, 1, 0, 1, 0, 1
    37,  1,      1400,   209.191,       Inf,      -Inf,        1, 0,     100, 0, 1, 0, 0, 1, 1, 100,       Inf,         0, 1, 1, 0, 1, 0, 1, 0, 1, 0, 1
    38,  1,    1549.8,   326.804,       Inf,      -Inf,        1, 0,     100, 0, 1, 0, 0, 1, 1, 100,       Inf,         0, 1, 1, 0, 1, 0, 1, 0, 1, 0, 1
    46,  1,         0,    58.162,       Inf,      -Inf,        1, 0,     100, 0, 1, 0, 0, 1, 1, 100,       Inf,         0, 1, 1, 0, 1, 0, 1, 0, 1, 0, 1
    51,  1,       600,    50.693,       Inf,      -Inf,        1, 0,     100, 0, 1, 0, 0, 1, 1, 100,       Inf,         0, 1, 1, 0, 1, 0, 1, 0, 1, 0, 1
    52,  1,       800,   160.267,       Inf,      -Inf,        1, 0,     100, 0, 1, 0, 0, 1, 1, 100,       Inf,         0, 1, 1, 0, 1, 0, 1, 0, 1, 0, 1
    53,  1,       436,   100.855,       Inf,      -Inf,        1, 0,     100, 0, 1, 0, 0, 1, 1, 100,       Inf,         0, 1, 1, 0, 1, 0, 1, 0, 1, 0, 1
    57,  1,         0,    22.648,       Inf,      -Inf,    1.015, 0,     100, 0, 1, 0, 0, 1, 1, 100,       Inf,         0, 1, 1, 0, 1, 0, 1, 0, 1, 0, 1
    59,  1,         0,    10.554,       Inf,      -Inf,     1.03, 0,     100, 0, 1, 0, 0, 1, 1, 100,       Inf,         0, 1, 1, 0, 1, 0, 1, 0, 1, 0, 1
0 / END OF GENERATOR DATA, BEGIN BRANCH DATA
     2,     19, 1,   0.0084,   0.0667,    0.817,       0,       0,       0, 0, 0, 0, 0, 1, 1, 0, 1, 1, 0, 1, 0, 1, 0, 1
     2,     19, 2,   0.0084,   0.0667,    0.817,       0,       0,       0, 0, 0, 0, 0, 1, 1, 0, 1, 1, 0, 1, 0, 1, 0, 1
     2,     19, 3,   0.0078,    0.062,     0.76,       0,       0,       0, 0, 0, 0, 0, 1, 1, 0, 1, 1, 0, 1, 0, 1, 0, 1
     2,     19, 4,   0.0078,    0.062,     0.76,       0,       0,       0, 0, 0, 0, 0, 1, 1, 0, 1, 1, 0, 1, 0, 1, 0, 1
     2,     28, 1,   0.0045,   0.0356,    0.437,       0,       0,       0, 0, 0, 0, 0, 1, 1, 0, 1, 1, 0, 1, 0, 1, 0, 1
     2,     28, 2,   0.0045,   0.0356,    0.437,       0,       0,       0, 0, 0, 0, 0, 1, 1, 0, 1, 1, 0, 1, 0, 1, 0, 1
     2,     28, 3,   0.0109,   0.0868,     0.76,       0,       0,       0, 0, 0, 0, 0, 1, 1, 0, 1, 1, 0, 1, 0, 1, 0, 1
     7,      8, 1,   0.0096,    0.076,    0.931,       0,       0,       0, 0, 0, 0, 0, 1, 1, 0, 1, 1, 0, 1, 0, 1, 0, 1
     7,      8, 2,   0.0096,    0.076,    0.931,       0,       0,       0, 0, 0, 0, 0, 1, 1, 0, 1, 1, 0, 1, 0, 1, 0, 1
     7,     50, 1,   0.0037,    0.046,     0.73,       0,       0,       0, 0, 0, 0, 0, 1, 1, 0, 1, 1, 0, 1, 0, 1, 0, 1
     7,     50, 2,   0.0037,    0.046,     0.73,       0,       0,       0, 0, 0, 0, 0, 1, 1, 0, 1, 1, 0, 1, 0, 1, 0, 1
     8,      9, 1,   0.0045,   0.0356,    0.437,       0,       0,       0, 0, 0, 0, 0, 1, 1, 0, 1, 1, 0, 1, 0, 1, 0, 1
     8,      9, 2,   0.0045,   0.0356,    0.437,       0,       0,       0, 0, 0, 0, 0, 1, 1, 0, 1, 1, 0, 1, 0, 1, 0, 1
     8,     14, 1,   0.0066,   0.0527,    0.646,       0,       0,       0, 0, 0, 0, 0, 1, 1, 0, 1, 1, 0, 1, 0, 1, 0, 1
     8,     14, 2,   0.0066,   0.0527,    0.646,       0,       0,       0, 0, 0, 0, 0, 1, 1, 0, 1, 1, 0, 1, 0, 1, 0, 1
     8,     17, 1,   0.0066,   0.0527,    0.646,       0,       0,       0, 0, 0, 0, 0, 1, 1, 0, 1, 1, 0, 1, 0, 1, 0, 1
     8,     17, 2,   0.0066,   0.0527,    0.646,       0,       0,       0, 0, 0, 0, 0, 1, 1, 0, 1, 1, 0, 1, 0, 1, 0, 1
     9,     10, 1,   0.0018,    0.014,    0.171,       0,       0,       0, 0, 0, 0, 0, 1, 1, 0, 1, 1, 0, 1, 0, 1, 0, 1
     9,     10, 2,   0.0018,    0.014,    0.171,       0,       0,       0, 0, 0, 0, 0, 1, 1, 0, 1, 1, 0, 1, 0, 1, 0, 1
     9,     11, 1,   0.0008,   0.0062,    0.076,       0,       0,       0, 0, 0, 0, 0, 1, 1, 0, 1, 1, 0, 1, 0, 1, 0, 1
    10,     13, 1,   0.0031,   0.0248,    0.304,       0,       0,       0, 0, 0, 0, 0, 1, 1, 0, 1, 1, 0, 1, 0, 1, 0, 1
    10,     13, 2,   0.0031,   0.0248,    0.304,       0,       0,       0, 0, 0, 0, 0, 1, 1, 0, 1, 1, 0, 1, 0, 1, 0, 1
    10,     13, 3,   0.0031,   0.0248,    0.304,       0,       0,       0, 0, 0, 0, 0, 1, 1, 0, 1, 1, 0, 1, 0, 1, 0, 1
    11,     14, 1,   0.0045,   0.0356,    0.437,       0,       0,       0, 0, 0, 0, 0, 1, 1, 0, 1, 1, 0, 1, 0, 1, 0, 1
    12,     15, 1,    0.001,   0.0145,     1.54,       0,       0,       0, 0, 0, 0, 0, 1, 1, 0, 1, 1, 0, 1, 0, 1, 0, 1
    12,     15, 2,    0.001,   0.0145,     1.54,       0,       0,       0, 0, 0, 0, 0, 1, 1, 0, 1, 1, 0, 1, 0, 1, 0, 1
    13,     14, 1,   0.0014,   0.0108,    0.133,       0,       0,       0, 0, 0, 0, 0, 1, 1, 0, 1, 1, 0, 1, 0, 1, 0, 1
    13,     14, 2,   0.0014,   0.0108,    0.133,       0,       0,       0, 0, 0, 0, 0, 1, 1, 0, 1, 1, 0, 1, 0, 1, 0, 1
    13,     16, 1,   0.0019,   0.0155,     0.19,       0,       0,       0, 0, 0, 0, 0, 1, 1, 0, 1, 1, 0, 1, 0, 1, 0, 1
    14,     19, 1,    0.007,   0.0558,    0.684,       0,       0,       0, 0, 0, 0, 0, 1, 1, 0, 1, 1, 0, 1, 0, 1, 0, 1
    16,     18, 1,    0.001,   0.0077,    0.095,       0,       0,       0, 0, 0, 0, 0, 1, 1, 0, 1, 1, 0, 1, 0, 1, 0, 1
    16,     19, 1,   0.0049,   0.0388,    0.475,       0,       0,       0, 0, 0, 0, 0, 1, 1, 0, 1, 1, 0, 1, 0, 1, 0, 1
    17,     18, 1,   0.0051,   0.0403,    0.494,       0,       0,       0, 0, 0, 0, 0, 1, 1, 0, 1, 1, 0, 1, 0, 1, 0, 1
    17,     18, 2,   0.0051,   0.0403,    0.494,       0,       0,       0, 0, 0, 0, 0, 1, 1, 0, 1, 1, 0, 1, 0, 1, 0, 1
    17,     19, 1,   0.0072,   0.0574,    0.703,       0,       0,       0, 0, 0, 0, 0, 1, 1, 0, 1, 1, 0, 1, 0, 1, 0, 1
    17,     19, 2,   0.0072,   0.0574,    0.703,       0,       0,       0, 0, 0, 0, 0, 1, 1, 0, 1, 1, 0, 1, 0, 1, 0, 1
    18,     19, 1,   0.0051,   0.0403,    0.494,       0,       0,       0, 0, 0, 0, 0, 1, 1, 0, 1, 1, 0, 1, 0, 1, 0, 1
    22,     23, 1,    0.002,    0.028,     0.74,       0,       0,       0, 0, 0, 0, 0, 1, 1, 0, 1, 1, 0, 1, 0, 1, 0, 1
    22,     23, 2,    0.002,    0.028,     0.74,       0,       0,       0, 0, 0, 0, 0, 1, 1, 0, 1, 1, 0, 1, 0, 1, 0, 1
    22,     24, 1,   0.0011,    0.016,      1.7,       0,       0,       0, 0, 0, 0, 0, 1, 1, 0, 1, 1, 0, 1, 0, 1, 0, 1
    22,     24, 2,   0.0011,    0.016,      1.7,       0,       0,       0, 0, 0, 0, 0, 1, 1, 0, 1, 1, 0, 1, 0, 1, 0, 1
    23,     24, 1,   0.0003,    0.004,    0.424,       0,       0,       0, 0, 0, 0, 0, 1, 1, 0, 1, 1, 0, 1, 0, 1, 0, 1
    24,     25, 1,   0.0002,    0.003,     0.32,       0,       0,       0, 0, 0, 0, 0, 1, 1, 0, 1, 1, 0, 1, 0, 1, 0, 1
    24,     26, 1,   0.0003,   0.0045,    0.447,       0,       0,       0, 0, 0, 0, 0, 1, 1, 0, 1, 1, 0, 1, 0, 1, 0, 1
    24,     26, 2,   0.0003,   0.0045,    0.447,       0,       0,       0, 0, 0, 0, 0, 1, 1, 0, 1, 1, 0, 1, 0, 1, 0, 1
    25,     26, 1,   0.0001,   0.0012,    0.127,       0,       0,       0, 0, 0, 0, 0, 1, 1, 0, 1, 1, 0, 1, 0, 1, 0, 1
    26,     27, 1,   0.0023,   0.0325,    3.445,       0,       0,       0, 0, 0, 0, 0, 1, 1, 0, 1, 1, 0, 1, 0, 1, 0, 1
    26,     27, 2,   0.0023,   0.0325,    3.445,       0,       0,       0, 0, 0, 0, 0, 1, 1, 0, 1, 1, 0, 1, 0, 1, 0, 1
    28,     29, 1,   0.0135,  0.10695,  0.58267,       0,       0,       0, 0, 0, 0, 0, 1, 1, 0, 1, 1, 0, 1, 0, 1, 0, 1
    28,     29, 2,   0.0135,  0.10695,  0.58267,       0,       0,       0, 0, 0, 0, 0, 1, 1, 0, 1, 1, 0, 1, 0, 1, 0, 1
    28,     29, 3,   0.0135,  0.10695,  0.58267,       0,       0,       0, 0, 0, 0, 0, 1, 1, 0, 1, 1, 0, 1, 0, 1, 0, 1
    29,     30, 1,        0,   0.0337,        0,       0,       0,       0, 0, 0, 0, 0, 1, 1, 0, 1, 1, 0, 1, 0, 1, 0, 1
    29,     30, 2,        0,   0.0337,        0,       0,       0,       0, 0, 0, 0, 0, 1, 1, 0, 1, 1, 0, 1, 0, 1, 0, 1
    31,     32, 1,    0.006,    0.045,      0.3,       0,       0,       0, 0, 0, 0, 0, 1, 1, 0, 1, 1, 0, 1, 0, 1, 0, 1
    31,     32, 2,    0.006,    0.045,      0.3,       0,       0,       0, 0, 0, 0, 0, 1, 1, 0, 1, 1, 0, 1, 0, 1, 0, 1
    31,     32, 3,    0.006,    0.045,      0.3,       0,       0,       0, 0, 0, 0, 0, 1, 1, 0, 1, 1, 0, 1, 0, 1, 0, 1
    32,     33, 1,    0.001,     0.01,     0.26,       0,       0,       0, 0, 0, 0, 0, 1, 1, 0, 1, 1, 0, 1, 0, 1, 0, 1
    32,     33, 2,    0.001,     0.01,     0.26,       0,       0,       0, 0, 0, 0, 0, 1, 1, 0, 1, 1, 0, 1, 0, 1, 0, 1
    34,     59, 1,    0.007,     0.05,     0.19,       0,       0,       0, 0, 0, 0, 0, 1, 1, 0, 1, 1, 0, 1, 0, 1, 0, 1
    34,     59, 2,    0.007,     0.05,     0.19,       0,       0,       0, 0, 0, 0, 0, 1, 1, 0, 1, 1, 0, 1, 0, 1, 0, 1
    39,     40, 1,   0.0039,   0.0475,    0.381,       0,       0,       0, 0, 0, 0, 0, 1, 1, 0, 1, 1, 0, 1, 0, 1, 0, 1
    39,     40, 2,   0.0039,   0.0475,    0.381,       0,       0,       0, 0, 0, 0, 0, 1, 1, 0, 1, 1, 0, 1, 0, 1, 0, 1
    39,     42, 1,   0.0054,     0.05,    0.189,       0,       0,       0, 0, 0, 0, 0, 1, 1, 0, 1, 1, 0, 1, 0, 1, 0, 1
    39,     43, 1,    0.018,    0.122,     0.79,       0,       0,       0, 0, 0, 0, 0, 1, 1, 0, 1, 1, 0, 1, 0, 1, 0, 1
    39,     43, 2,    0.018,    0.122,     0.79,       0,       0,       0, 0, 0, 0, 0, 1, 1, 0, 1, 1, 0, 1, 0, 1, 0, 1
    39,     43, 3,    0.018,    0.122,     0.79,       0,       0,       0, 0, 0, 0, 0, 1, 1, 0, 1, 1, 0, 1, 0, 1, 0, 1
    40,     41, 1,   0.0006,   0.0076,    0.062,       0,       0,       0, 0, 0, 0, 0, 1, 1, 0, 1, 1, 0, 1, 0, 1, 0, 1
    40,     41, 2,   0.0006,   0.0076,    0.062,       0,       0,       0, 0, 0, 0, 0, 1, 1, 0, 1, 1, 0, 1, 0, 1, 0, 1
    41,     42, 1,   0.0042,   0.0513,    0.412,       0,       0,       0, 0, 0, 0, 0, 1, 1, 0, 1, 1, 0, 1, 0, 1, 0, 1
    42,     44, 1,   0.0165,    0.192,  0.67333,       0,       0,       0, 0, 0, 0, 0, 1, 1, 0, 1, 1, 0, 1, 0, 1, 0, 1
    42,     44, 2,   0.0165,    0.192,  0.67333,       0,       0,       0, 0, 0, 0, 0, 1, 1, 0, 1, 1, 0, 1, 0, 1, 0, 1
    42,     44, 3,   0.0165,    0.192,  0.67333,       0,       0,       0, 0, 0, 0, 0, 1, 1, 0, 1, 1, 0, 1, 0, 1, 0, 1
    43,     45, 1,   0.0103,   0.0709,     0.46,       0,       0,       0, 0, 0, 0, 0, 1, 1, 0, 1, 1, 0, 1, 0, 1, 0, 1
    43,     45, 2,   0.0103,   0.0709,     0.46,       0,       0,       0, 0, 0, 0, 0, 1, 1, 0, 1, 1, 0, 1, 0, 1, 0, 1
    44,     45, 1,   0.0043,   0.0532,    0.427,       0,       0,       0, 0, 0, 0, 0, 1, 1, 0, 1, 1, 0, 1, 0, 1, 0, 1
    44,     46, 1,   0.0043,   0.0532,    0.427,       0,       0,       0, 0, 0, 0, 0, 1, 1, 0, 1, 1, 0, 1, 0, 1, 0, 1
    44,     46, 2,   0.0043,   0.0532,    0.427,       0,       0,       0, 0, 0, 0, 0, 1, 1, 0, 1, 1, 0, 1, 0, 1, 0, 1
    44,     46, 3,   0.0043,   0.0532,    0.427,       0,       0,       0, 0, 0, 0, 0, 1, 1, 0, 1, 1, 0, 1, 0, 1, 0, 1
    44,     46, 4,   0.0043,   0.0532,    0.427,       0,       0,       0, 0, 0, 0, 0, 1, 1, 0, 1, 1, 0, 1, 0, 1, 0, 1
    44,     47, 1,    0.004,   0.0494,      0.4,       0,       0,       0, 0, 0, 0, 0, 1, 1, 0, 1, 1, 0, 1, 0, 1, 0, 1
    44,     47, 2,    0.004,   0.0494,      0.4,       0,       0,       0, 0, 0, 0, 0, 1, 1, 0, 1, 1, 0, 1, 0, 1, 0, 1
    45,     46, 1,   0.0012,   0.0152,    0.122,       0,       0,       0, 0, 0, 0, 0, 1, 1, 0, 1, 1, 0, 1, 0, 1, 0, 1
    45,     46, 2,   0.0012,   0.0152,    0.122,       0,       0,       0, 0, 0, 0, 0, 1, 1, 0, 1, 1, 0, 1, 0, 1, 0, 1
    48,     49, 1,    0.002,    0.025,     0.39,       0,       0,       0, 0, 0, 0, 0, 1, 1, 0, 1, 1, 0, 1, 0, 1, 0, 1
    48,     49, 2,    0.002,    0.025,     0.39,       0,       0,       0, 0, 0, 0, 0, 1, 1, 0, 1, 1, 0, 1, 0, 1, 0, 1
    49,     50, 1,   0.0037,    0.046,     0.73,       0,       0,       0, 0, 0, 0, 0, 1, 1, 0, 1, 1, 0, 1, 0, 1, 0, 1
    49,     50, 2,   0.0037,    0.046,     0.73,       0,       0,       0, 0, 0, 0, 0, 1, 1, 0, 1, 1, 0, 1, 0, 1, 0, 1
    54,     57, 1,    0.023,     0.15,     0.56,       0,       0,       0, 0, 0, 0, 0, 1, 1, 0, 1, 1, 0, 1, 0, 1, 0, 1
    54,     57, 2,    0.023,     0.15,     0.56,       0,       0,       0, 0, 0, 0, 0, 1, 1, 0, 1, 1, 0, 1, 0, 1, 0, 1
    54,     58, 1,    0.026,    0.019,     0.87,       0,       0,       0, 0, 0, 0, 0, 1, 1, 0, 1, 1, 0, 1, 0, 1, 0, 1
    54,     58, 2,    0.026,    0.019,     0.87,       0,       0,       0, 0, 0, 0, 0, 1, 1, 0, 1, 1, 0, 1, 0, 1, 0, 1
    55,     57, 1,   0.0016,    0.017,     0.03,       0,       0,       0, 0, 0, 0, 0, 1, 1, 0, 1, 1, 0, 1, 0, 1, 0, 1
    55,     57, 2,   0.0016,    0.017,     0.03,       0,       0,       0, 0, 0, 0, 0, 1, 1, 0, 1, 1, 0, 1, 0, 1, 0, 1
    55,     58, 1,   0.0025,    0.028,     0.17,       0,       0,       0, 0, 0, 0, 0, 1, 1, 0, 1, 1, 0, 1, 0, 1, 0, 1
    56,     57, 1,   0.0016,    0.017,     0.03,       0,       0,       0, 0, 0, 0, 0, 1, 1, 0, 1, 1, 0, 1, 0, 1, 0, 1
    56,     57, 2,   0.0016,    0.017,     0.03,       0,       0,       0, 0, 0, 0, 0, 1, 1, 0, 1, 1, 0, 1, 0, 1, 0, 1
    56,     58, 1,    0.003,    0.028,     0.14,       0,       0,       0, 0, 0, 0, 0, 1, 1, 0, 1, 1, 0, 1, 0, 1, 0, 1
    57,     58, 1,    0.002,    0.019,     0.09,       0,       0,       0, 0, 0, 0, 0, 1, 1, 0, 1, 1, 0, 1, 0, 1, 0, 1
    57,     59, 1,     0.09,     0.66,      0.3,       0,       0,       0, 0, 0, 0, 0, 1, 1, 0, 1, 1, 0, 1, 0, 1, 0, 1
    57,     59, 2,     0.09,     0.66,      0.3,       0,       0,       0, 0, 0, 0, 0, 1, 1, 0, 1, 1, 0, 1, 0, 1, 0, 1
    57,     59, 3,     0.09,     0.66,      0.3,       0,       0,       0, 0, 0, 0, 0, 1, 1, 0, 1, 1, 0, 1, 0, 1, 0, 1
    57,     59, 4,     0.09,     0.66,      0.3,       0,       0,       0, 0, 0, 0, 0, 1, 1, 0, 1, 1, 0, 1, 0, 1, 0, 1
    57,     59, 5,     0.09,     0.66,      0.3,       0,       0,       0, 0, 0, 0, 0, 1, 1, 0, 1, 1, 0, 1, 0, 1, 0, 1
    57,     59, 6,     0.09,     0.66,      0.3,       0,       0,       0, 0, 0, 0, 0, 1, 1, 0, 1, 1, 0, 1, 0, 1, 0, 1
0 / END OF BRANCH DATA, BEGIN TRANSFORMER DATA
     1,      2, 0, 1, 1, 1, 1, 0, 0, 2, '            ', 1, 1, 1, 0, 1, 0, 1, 0, 1, '            '
0, 0.009, 100
0.939, 0,     0,       0,       0,       0, 0, 0, 1.1, 0.9, 1.1, 0.9, 33, 0, 0, 0, 0
    1, 0
     3,      8, 0, 1, 1, 1, 1, 0, 0, 2, '            ', 1, 1, 1, 0, 1, 0, 1, 0, 1, '            '
0, 0.004, 100
0.9434, 0,     0,       0,       0,       0, 0, 0, 1.1, 0.9, 1.1, 0.9, 33, 0, 0, 0, 0
    1, 0
     4,     11, 0, 1, 1, 1, 1, 0, 0, 2, '            ', 1, 1, 1, 0, 1, 0, 1, 0, 1, '            '
0, 0.00576, 100
0.939, 0,     0,       0,       0,       0, 0, 0, 1.1, 0.9, 1.1, 0.9, 33, 0, 0, 0, 0
    1, 0
     5,     10, 0, 1, 1, 1, 1, 0, 0, 2, '            ', 1, 1, 1, 0, 1, 0, 1, 0, 1, '            '
0, 0.00765, 100
0.939, 0,     0,       0,       0,       0, 0, 0, 1.1, 0.9, 1.1, 0.9, 33, 0, 0, 0, 0
    1, 0
     6,     17, 0, 1, 1, 1, 1, 0, 0, 2, '            ', 1, 1, 1, 0, 1, 0, 1, 0, 1, '            '
0, 0.004, 100
0.939, 0,     0,       0,       0,       0, 0, 0, 1.1, 0.9, 1.1, 0.9, 33, 0, 0, 0, 0
    1, 0
    11,     12, 0, 1, 1, 1, 1, 0, 0, 2, '            ', 1, 1, 1, 0, 1, 0, 1, 0, 1, '            '
0, 0.0272, 100
0.9756, 0,     0,       0,       0,       0, 0, 0, 1.1, 0.9, 1.1, 0.9, 33, 0, 0, 0, 0
    1, 0
    11,     12, 0, 2, 1, 1, 1, 0, 0, 2, '            ', 1, 1, 1, 0, 1, 0, 1, 0, 1, '            '
0, 0.0272, 100
0.9756, 0,     0,       0,       0,       0, 0, 0, 1.1, 0.9, 1.1, 0.9, 33, 0, 0, 0, 0
    1, 0
    11,     12, 0, 3, 1, 1, 1, 0, 0, 2, '            ', 1, 1, 1, 0, 1, 0, 1, 0, 1, '            '
0, 0.0272, 100
0.9756, 0,     0,       0,       0,       0, 0, 0, 1.1, 0.9, 1.1, 0.9, 33, 0, 0, 0, 0
    1, 0
    11,     12, 0, 4, 1, 1, 1, 0, 0, 2, '            ', 1, 1, 1, 0, 1, 0, 1, 0, 1, '            '
0, 0.0272, 100
0.9756, 0,     0,       0,       0,       0, 0, 0, 1.1, 0.9, 1.1, 0.9, 33, 0, 0, 0, 0
    1, 0
    15,     16, 0, 1, 1, 1, 1, 0, 0, 2, '            ', 1, 1, 1, 0, 1, 0, 1, 0, 1, '            '
0, 0.0272, 100
    1, 0,     0,       0,       0,       0, 0, 0, 1.1, 0.9, 1.1, 0.9, 33, 0, 0, 0, 0
    1, 0
    15,     16, 0, 2, 1, 1, 1, 0, 0, 2, '            ', 1, 1, 1, 0, 1, 0, 1, 0, 1, '            '
0, 0.0272, 100
    1, 0,     0,       0,       0,       0, 0, 0, 1.1, 0.9, 1.1, 0.9, 33, 0, 0, 0, 0
    1, 0
    15,     16, 0, 3, 1, 1, 1, 0, 0, 2, '            ', 1, 1, 1, 0, 1, 0, 1, 0, 1, '            '
0, 0.0272, 100
    1, 0,     0,       0,       0,       0, 0, 0, 1.1, 0.9, 1.1, 0.9, 33, 0, 0, 0, 0
    1, 0
    15,     16, 0, 4, 1, 1, 1, 0, 0, 2, '            ', 1, 1, 1, 0, 1, 0, 1, 0, 1, '            '
0, 0.0272, 100
    1, 0,     0,       0,       0,       0, 0, 0, 1.1, 0.9, 1.1, 0.9, 33, 0, 0, 0, 0
    1, 0
    20,     22, 0, 1, 1, 1, 1, 0, 0, 2, '            ', 1, 1, 1, 0, 1, 0, 1, 0, 1, '            '
0, 0.00343, 100
0.939, 0,     0,       0,       0,       0, 0, 0, 1.1, 0.9, 1.1, 0.9, 33, 0, 0, 0, 0
    1, 0
    21,     31, 0, 1, 1, 1, 1, 0, 0, 2, '            ', 1, 1, 1, 0, 1, 0, 1, 0, 1, '            '
0, 0.01127, 100
0.9524, 0,     0,       0,       0,       0, 0, 0, 1.1, 0.9, 1.1, 0.9, 33, 0, 0, 0, 0
    1, 0
    23,     32, 0, 1, 1, 1, 1, 0, 0, 2, '            ', 1, 1, 1, 0, 1, 0, 1, 0, 1, '            '
0, 0.032, 100
0.9615, 0,     0,       0,       0,       0, 0, 0, 1.1, 0.9, 1.1, 0.9, 33, 0, 0, 0, 0
    1, 0
    23,     32, 0, 2, 1, 1, 1, 0, 0, 2, '            ', 1, 1, 1, 0, 1, 0, 1, 0, 1, '            '
0, 0.032, 100
0.9615, 0,     0,       0,       0,       0, 0, 0, 1.1, 0.9, 1.1, 0.9, 33, 0, 0, 0, 0
    1, 0
    24,     30, 0, 1, 1, 1, 1, 0, 0, 2, '            ', 1, 1, 1, 0, 1, 0, 1, 0, 1, '            '
0, 0.036, 100
    1, 0,     0,       0,       0,       0, 0, 0, 1.1, 0.9, 1.1, 0.9, 33, 0, 0, 0, 0
    1, 0
    24,     30, 0, 2, 1, 1, 1, 0, 0, 2, '            ', 1, 1, 1, 0, 1, 0, 1, 0, 1, '            '
0, 0.036, 100
    1, 0,     0,       0,       0,       0, 0, 0, 1.1, 0.9, 1.1, 0.9, 33, 0, 0, 0, 0
    1, 0
    24,     30, 0, 3, 1, 1, 1, 0, 0, 2, '            ', 1, 1, 1, 0, 1, 0, 1, 0, 1, '            '
0, 0.036, 100
    1, 0,     0,       0,       0,       0, 0, 0, 1.1, 0.9, 1.1, 0.9, 33, 0, 0, 0, 0
    1, 0
    24,     33, 0, 1, 1, 1, 1, 0, 0, 2, '            ', 1, 1, 1, 0, 1, 0, 1, 0, 1, '            '
0, 0.024, 100
    1, 0,     0,       0,       0,       0, 0, 0, 1.1, 0.9, 1.1, 0.9, 33, 0, 0, 0, 0
    1, 0
    24,     33, 0, 2, 1, 1, 1, 0, 0, 2, '            ', 1, 1, 1, 0, 1, 0, 1, 0, 1, '            '
0, 0.024, 100
    1, 0,     0,       0,       0,       0, 0, 0, 1.1, 0.9, 1.1, 0.9, 33, 0, 0, 0, 0
    1, 0
    27,     34, 0, 1, 1, 1, 1, 0, 0, 2, '            ', 1, 1, 1, 0, 1, 0, 1, 0, 1, '            '
0, 0.027, 100
    1, 0,     0,       0,       0,       0, 0, 0, 1.1, 0.9, 1.1, 0.9, 33, 0, 0, 0, 0
    1, 0
    27,     34, 0, 2, 1, 1, 1, 0, 0, 2, '            ', 1, 1, 1, 0, 1, 0, 1, 0, 1, '            '
0, 0.027, 100
    1, 0,     0,       0,       0,       0, 0, 0, 1.1, 0.9, 1.1, 0.9, 33, 0, 0, 0, 0
    1, 0
    35,     44, 0, 1, 1, 1, 1, 0, 0, 2, '            ', 1, 1, 1, 0, 1, 0, 1, 0, 1, '            '
0, 0.00845, 100
0.939, 0,     0,       0,       0,       0, 0, 0, 1.1, 0.9, 1.1, 0.9, 33, 0, 0, 0, 0
    1, 0
    36,     42, 0, 1, 1, 1, 1, 0, 0, 2, '            ', 1, 1, 1, 0, 1, 0, 1, 0, 1, '            '
0, 0.017, 100
0.9524, 0,     0,       0,       0,       0, 0, 0, 1.1, 0.9, 1.1, 0.9, 33, 0, 0, 0, 0
    1, 0
    37,     41, 0, 1, 1, 1, 1, 0, 0, 2, '            ', 1, 1, 1, 0, 1, 0, 1, 0, 1, '            '
0, 0.00845, 100
0.9524, 0,     0,       0,       0,       0, 0, 0, 1.1, 0.9, 1.1, 0.9, 33, 0, 0, 0, 0
    1, 0
    38,     39, 0, 1, 1, 1, 1, 0, 0, 2, '            ', 1, 1, 1, 0, 1, 0, 1, 0, 1, '            '
0, 0.0085, 100
0.9524, 0,     0,       0,       0,       0, 0, 0, 1.1, 0.9, 1.1, 0.9, 33, 0, 0, 0, 0
    1, 0
    47,     48, 0, 1, 1, 1, 1, 0, 0, 2, '            ', 1, 1, 1, 0, 1, 0, 1, 0, 1, '            '
0, 0.008, 100
    1, 0,     0,       0,       0,       0, 0, 0, 1.1, 0.9, 1.1, 0.9, 33, 0, 0, 0, 0
    1, 0
    47,     48, 0, 2, 1, 1, 1, 0, 0, 2, '            ', 1, 1, 1, 0, 1, 0, 1, 0, 1, '            '
0, 0.008, 100
    1, 0,     0,       0,       0,       0, 0, 0, 1.1, 0.9, 1.1, 0.9, 33, 0, 0, 0, 0
    1, 0
    47,     48, 0, 3, 1, 1, 1, 0, 0, 2, '            ', 1, 1, 1, 0, 1, 0, 1, 0, 1, '            '
0, 0.008, 100
    1, 0,     0,       0,       0,       0, 0, 0, 1.1, 0.9, 1.1, 0.9, 33, 0, 0, 0, 0
    1, 0
    51,     54, 0, 1, 1, 1, 1, 0, 0, 2, '            ', 1, 1, 1, 0, 1, 0, 1, 0, 1, '            '
0, 0.0255, 100
0.9524, 0,     0,       0,       0,       0, 0, 0, 1.1, 0.9, 1.1, 0.9, 33, 0, 0, 0, 0
    1, 0
    52,     55, 0, 1, 1, 1, 1, 0, 0, 2, '            ', 1, 1, 1, 0, 1, 0, 1, 0, 1, '            '
0, 0.016, 100
0.9622, 0,     0,       0,       0,       0, 0, 0, 1.1, 0.9, 1.1, 0.9, 33, 0, 0, 0, 0
    1, 0
    53,     56, 0, 1, 1, 1, 1, 0, 0, 2, '            ', 1, 1, 1, 0, 1, 0, 1, 0, 1, '            '
0, 0.025, 100
0.9622, 0,     0,       0,       0,       0, 0, 0, 1.1, 0.9, 1.1, 0.9, 33, 0, 0, 0, 0
    1, 0
0 / END OF TRANSFORMER DATA, BEGIN AREA DATA
0 / END OF AREA DATA, BEGIN TWO-TERMINAL DC DATA
0 / END OF TWO-TERMINAL DC DATA, BEGIN VOLTAGE SOURCE CONVERTER DATA
0 / END OF VOLTAGE SOURCE CONVERTER DATA, BEGIN IMPEDANCE CORRECTION DATA
0 / END OF IMPEDANCE CORRECTION DATA, BEGIN MULTI-TERMINAL DC DATA
0 / END OF MULTI-TERMINAL DC DATA, BEGIN MULTI-SECTION LINE DATA
0 / END OF MULTI-SECTION LINE DATA, BEGIN ZONE DATA
0 / END OF ZONE DATA, BEGIN INTER-AREA TRANSFER DATA
0 / END OF INTER-AREA TRANSFER DATA, BEGIN OWNER DATA
0 / END OF OWNER DATA, BEGIN FACTS CONTROL DEVICE DATA
0 / END OF FACTS CONTROL DEVICE DATA, BEGIN SWITCHED SHUNT DATA
0 / END OF SWITCHED SHUNT DATA, BEGIN GNE DEVICE DATA
0 / END OF GNE DEVICE DATA, BEGIN INDUCTION MACHINE DATA
0 / END OF INDUCTION MACHINE DATA
Q
